Version 4.1
SHEET 1 880 680
WIRE 144 -176 96 -176
WIRE 144 -144 96 -144
WIRE -432 -112 -496 -112
WIRE 144 -112 144 -144
WIRE -432 -80 -496 -80
WIRE 240 -80 96 -80
WIRE -320 -48 -496 -48
WIRE -224 -48 -288 -48
WIRE -320 -32 -320 -48
WIRE -240 -32 -320 -32
WIRE -288 -16 -288 -48
WIRE -288 -16 -496 -16
WIRE -240 -16 -240 -32
WIRE -224 -16 -240 -16
FLAG 224 -176 0
FLAG 144 -112 0
FLAG 240 -80 3V3
IOPIN 240 -80 Out
FLAG -432 -112 0
FLAG -432 -80 3V3
IOPIN -432 -80 In
SYMBOL oled -496 -128 M0
SYMATTR InstName U1
SYMBOL raspberry_pi_pico_2w -240 -224 R0
SYMATTR InstName U2
SYMBOL Misc\\battery 128 -176 R270
WINDOW 0 32 56 VTop 2
WINDOW 3 -32 56 VBottom 2
SYMATTR InstName V1
