Version 4.1
SHEET 1 948 680
WIRE 384 -336 384 -384
WIRE 384 -208 384 -256
WIRE 384 -208 240 -208
WIRE 320 -176 240 -176
WIRE 352 -112 240 -112
WIRE 416 -112 352 -112
WIRE 944 -80 864 -80
WIRE 352 -64 352 -112
WIRE 720 -48 672 -48
WIRE 352 48 352 16
WIRE 352 48 240 48
WIRE 400 48 352 48
WIRE 512 48 480 48
WIRE 944 112 944 -80
WIRE 944 112 240 112
WIRE 720 176 240 176
WIRE 720 208 240 208
WIRE 720 240 688 240
FLAG 416 -112 VCC
IOPIN 416 -112 Out
FLAG 320 -176 0
FLAG 720 -112 VCC
IOPIN 720 -112 In
FLAG 720 144 VCC
IOPIN 720 144 In
FLAG 672 -48 0
FLAG 688 240 0
FLAG 512 48 0
FLAG 384 -384 0
SYMBOL raspberry_pi_pico_2w -96 -256 R0
SYMATTR InstName U1
SYMBOL ultrasonic_sensor 720 112 R0
SYMATTR InstName U2
SYMBOL t_sensor. 720 -144 R0
SYMATTR InstName U3
SYMBOL res 336 -80 R0
WINDOW 0 -38 17 Left 2
WINDOW 3 -38 50 Left 2
SYMATTR InstName R1
SYMATTR Value 1k
SYMBOL res 496 32 R90
WINDOW 0 0 56 VBottom 2
WINDOW 3 32 56 VTop 2
SYMATTR InstName R_photo
SYMBOL Misc\\battery 384 -240 R180
WINDOW 0 24 104 Left 2
WINDOW 3 24 16 Left 2
WINDOW 123 0 0 Left 0
WINDOW 39 0 0 Left 0
SYMATTR InstName Vbat
SYMATTR Value 3.7
